*KEYWORD
*TITLE
square cross section for single surface contact and adaptivity test
$
$  LSTC Example
$
$  Last Modified: October 15, 1997
$
$  Units: ton, mm, s, N, MPa, N-mm
$
$$$$$$$$$$$$$$$$$$$$$$$$$$$$$$$$$$$$$$$$$$$$$$$$$$$$$$$$$$$$$$$$$$$$$$$$$$$$$$$$
$
$$$$  Control Ouput
$
$$$$$$$$$$$$$$$$$$$$$$$$$$$$$$$$$$$$$$$$$$$$$$$$$$$$$$$$$$$$$$$$$$$$$$$$$$$$$$$$
$
$...>....1....>....2....>....3....>....4....>....5....>....6....>....7....>....8
$
*CONTROL_TERMINATION
$   endtim    endcyc     dtmin    endneg    endmas
 3.000E-03
$
*CONTROL_ENERGY
$     hgen      rwen    slnten     rylen
         2         2         2
$
*CONTROL_OUTPUT
$    npopt    neecho    nrefup    iaccop     opifs    ipnint    ikedit
         1         3
$
$
*DATABASE_BINARY_D3PLOT
$       dt       lcdt 
  0.999e-4
$
*DATABASE_GLSTAT
$       dt
   0.00002
$
*DATABASE_MATSUM
$       dt
   0.00002
$
$$$$$$$$$$$$$$$$$$$$$$$$$$$$$$$$$$$$$$$$$$$$$$$$$$$$$$$$$$$$$$$$$$$$$$$$$$$$$$$$
$
$$$$  Adaptivity
$
$$$$$$$$$$$$$$$$$$$$$$$$$$$$$$$$$$$$$$$$$$$$$$$$$$$$$$$$$$$$$$$$$$$$$$$$$$$$$$$$
$
$...>....1....>....2....>....3....>....4....>....5....>....6....>....7....>....8
$
*CONTROL_ADAPTIVE
$  adpfreq    adptol    adpopt    maxlvl    tbirth    tdeath     lcadp    ioflag
    1.0e-4       5.0         2         2       0.0       0.0         0
$
$
*CONTROL_SUBCYCLE
$
$$$$$$$$$$$$$$$$$$$$$$$$$$$$$$$$$$$$$$$$$$$$$$$$$$$$$$$$$$$$$$$$$$$$$$$$$$$$$$$$
$
$$$$  Initial Conditions
$
$$$$$$$$$$$$$$$$$$$$$$$$$$$$$$$$$$$$$$$$$$$$$$$$$$$$$$$$$$$$$$$$$$$$$$$$$$$$$$$$
$
$...>....1....>....2....>....3....>....4....>....5....>....6....>....7....>....8
$
*INITIAL_VELOCITY_NODE
$      nid        vx        vy        vz       vxr       vyr       vzr
        650.0000E+00-0.5646E+40.0000E+00
        660.0000E+00-0.5646E+40.0000E+00
        990.0000E+00-0.5646E+40.0000E+00
       1320.0000E+00-0.5646E+40.0000E+00
       1650.0000E+00-0.5646E+40.0000E+00
       1980.0000E+00-0.5646E+40.0000E+00
       4230.0000E+00-0.5646E+40.0000E+00
       4560.0000E+00-0.5646E+40.0000E+00
       4890.0000E+00-0.5646E+40.0000E+00
       5220.0000E+00-0.5646E+40.0000E+00
       5550.0000E+00-0.5646E+40.0000E+00
$
$$$$$$$$$$$$$$$$$$$$$$$$$$$$$$$$$$$$$$$$$$$$$$$$$$$$$$$$$$$$$$$$$$$$$$$$$$$$$$$$
$
$$$$  Constraints
$
$$$$$$$$$$$$$$$$$$$$$$$$$$$$$$$$$$$$$$$$$$$$$$$$$$$$$$$$$$$$$$$$$$$$$$$$$$$$$$$$
$
$...>....1....>....2....>....3....>....4....>....5....>....6....>....7....>....8
$
*CONSTRAINED_NODE_SET
$     nsid       dof
        11         2
$
*SET_NODE
$      sid       da1
        11        11
$     nid1      nid2      nid3      nid4      nid5      nid6      nid7      nid8
        65        66        99       132       165       198       423       456
       489       522       555
$
$$$$$$$$$$$$$$$$$$$$$$$$$$$$$$$$$$$$$$$$$$$$$$$$$$$$$$$$$$$$$$$$$$$$$$$$$$$$$$$$
$
$$$$  Define Contacts - sliding interface definitions
$
$$$$$$$$$$$$$$$$$$$$$$$$$$$$$$$$$$$$$$$$$$$$$$$$$$$$$$$$$$$$$$$$$$$$$$$$$$$$$$$$
$
$...>....1....>....2....>....3....>....4....>....5....>....6....>....7....>....8
$
*CONTACT_AUTOMATIC_SINGLE_SURFACE
$     ssid      msid     sstyp     mstyp    sboxid    mboxid       spr       mpr
         1         0         2         0
$       fs        fd        dc        vc       vdc    penchk        bt        dt

$      sfs       sfm       sst       mst      sfst      sfmt       fsf       vsf

$
$
*SET_PART
$      sid       da1
         1         1
$      pid
         1
$
$$$$$$$$$$$$$$$$$$$$$$$$$$$$$$$$$$$$$$$$$$$$$$$$$$$$$$$$$$$$$$$$$$$$$$$$$$$$$$$$
$
$$$$  Define Parts and Materials
$
$$$$$$$$$$$$$$$$$$$$$$$$$$$$$$$$$$$$$$$$$$$$$$$$$$$$$$$$$$$$$$$$$$$$$$$$$$$$$$$$
$
$...>....1....>....2....>....3....>....4....>....5....>....6....>....7....>....8
$
*PART
$      pid       sid       mid     eosid      hgid      grav    adpopt
square-tube
         1         1         1         0         0         0         1
$
$
*MAT_PLASTIC_KINEMATIC
$      mid        ro         e        pr      sigy      etan      beta
         1 7.850E-09 1.994E+05 3.000E-01 3.366E+02 1.000E+00 1.000E+00 0.000E+00
$      src       srp        fs

$
$
*SECTION_SHELL
$      sid    elform      shrf       nip     propt   qr/irid     icomp
         1         2        1.        3.        0.        0.         0
$       t1        t2        t3        t4      nloc
       1.2       1.2       1.2       1.2
$
$$$$$$$$$$$$$$$$$$$$$$$$$$$$$$$$$$$$$$$$$$$$$$$$$$$$$$$$$$$$$$$$$$$$$$$$$$$$$$$$
$
$$$$  Define Nodes and Elements
$
$$$$$$$$$$$$$$$$$$$$$$$$$$$$$$$$$$$$$$$$$$$$$$$$$$$$$$$$$$$$$$$$$$$$$$$$$$$$$$$$
$
$...>....1....>....2....>....3....>....4....>....5....>....6....>....7....>....8
$
*NODE
$    nid               x               y               z      tc      rc
       1-3.501449966E+01 0.000000000E+00-3.501800156E+01       0       0
       2-3.003639984E+01 0.000000000E+00-3.496210098E+01       0       0
       3-3.499409866E+01 5.000000000E+00-3.495669937E+01       0       0
       4-2.999169922E+01 5.000000000E+00-3.503590012E+01       0       0
       5-3.495589828E+01 1.000000000E+01-3.503919983E+01       0       0
       6-3.003599930E+01 1.000000000E+01-3.495579910E+01       0       0
       7-3.498519897E+01 1.500000000E+01-3.497760010E+01       0       0
       8-3.001790047E+01 1.500000000E+01-3.497930145E+01       0       0
       9-3.504710007E+01 2.000000000E+01-3.504430008E+01       0       0
      10-2.999300003E+01 2.000000000E+01-3.496730042E+01       0       0
      11-3.499250031E+01 2.500000000E+01-3.499129868E+01       0       0
      12-3.004990005E+01 2.500000000E+01-3.495909882E+01       0       0
      13-3.498229980E+01 3.000000000E+01-3.503779984E+01       0       0
      14-3.004360008E+01 3.000000000E+01-3.496599960E+01       0       0
      15-3.500870132E+01 3.500000000E+01-3.495180130E+01       0       0
      16-2.999970055E+01 3.500000000E+01-3.500370026E+01       0       0
      17-3.498210144E+01 4.000000000E+01-3.503179932E+01       0       0
      18-3.003580093E+01 4.000000000E+01-3.496709824E+01       0       0
      19-3.495830154E+01 4.500000000E+01-3.502930069E+01       0       0
      20-2.995759964E+01 4.500000000E+01-3.498720169E+01       0       0
$ ... 695 like lines cut
$
$$$$$  Elements - Shells
$
*ELEMENT_SHELL
$    eid     pid      n1      n2      n3      n4
       1       1       1       2       4       3
       2       1       3       4       6       5
       3       1       5       6       8       7
       4       1       7       8      10       9
       5       1       9      10      12      11
       6       1      11      12      14      13
       7       1      13      14      16      15
       8       1      15      16      18      17
       9       1      17      18      20      19
      10       1      19      20      22      21
      11       1      21      22      24      23
      12       1      23      24      26      25
      13       1      25      26      28      27
      14       1      27      28      30      29
      15       1      29      30      32      31
      16       1      31      32      34      33
      17       1      33      34      36      35
      18       1      35      36      38      37
      19       1      37      38      40      39
      20       1      39      40      42      41
$ ... 620 like lines cut
$
$...>....1....>....2....>....3....>....4....>....5....>....6....>....7....>....8
$
$$$$$  Elements - Discrete Masses
$
*ELEMENT_MASS
$    eid     nid            mass
      65      65       1.000E-02
      66      66       1.000E-02
      99      99       1.000E-02
     132     132       1.000E-02
     165     165       1.000E-02
     198     198       5.000E-03
     423     423       1.000E-02
     456     456       1.000E-02
     489     489       1.000E-02
     522     522       1.000E-02
     555     555       5.000E-03
$
*END
