*KEYWORD
*TITLE
Edge to Edge Contact with Force Transducer
$
$  LSTC Example
$
$  Last Modified: September 9, 1997
$
$  Units: kg, m, s, N, Pa, Joule
$
$$$$$$$$$$$$$$$$$$$$$$$$$$$$$$$$$$$$$$$$$$$$$$$$$$$$$$$$$$$$$$$$$$$$$$$$$$$$$$$$
$
$$$$  Control Ouput
$
$$$$$$$$$$$$$$$$$$$$$$$$$$$$$$$$$$$$$$$$$$$$$$$$$$$$$$$$$$$$$$$$$$$$$$$$$$$$$$$$
$
$...>....1....>....2....>....3....>....4....>....5....>....6....>....7....>....8
$
*CONTROL_TERMINATION
$   endtim    endcyc     dtmin    endneg    endmas
     0.050
$
*CONTROL_HOURGLASS
$      ihq        qh
         4
$
*DATABASE_BINARY_D3PLOT
$       dt      lcdt
     0.001
$
*DATABASE_BINARY_D3THDT
$       dt      lcdt
 9.990E+02
$
*DATABASE_GLSTAT
$       dt
     0.001
$
*DATABASE_MATSUM
$       dt
     0.001
$
*DATABASE_RCFORC
$       dt
     0.001
$
$$$$$$$$$$$$$$$$$$$$$$$$$$$$$$$$$$$$$$$$$$$$$$$$$$$$$$$$$$$$$$$$$$$$$$$$$$$$$$$$
$
$$$$  Define Contacts
$
$$$$$$$$$$$$$$$$$$$$$$$$$$$$$$$$$$$$$$$$$$$$$$$$$$$$$$$$$$$$$$$$$$$$$$$$$$$$$$$$
$
$...>....1....>....2....>....3....>....4....>....5....>....6....>....7....>....8
$
$$$$$$$$$$  Type 22, single edge contact
$
*CONTACT_SINGLE_EDGE
$     ssid      msid     sstyp     mstyp    sboxid    mboxid       spr       mpr
         1                   0         0
$       fs        fd        dc        vc       vdc    penchk        bt        dt

$      sfs       sfm       sst       mst      sfst      sfmt       fsf       vsf

$
*SET_SEGMENT
$      sid
         1
$       n1        n2        n3        n4
         1         2         0         0
         2         3         0         0
         3        13         0         0
        13        14         0         0
        14        21         0         0
        21        22         0         0
        22        29         0         0
        29        30         0         0
        30        37         0         0
        37        38         0         0
        38        45         0         0
        45        46         0         0
        46        53         0         0
        53        54         0         0
        54        61         0         0
        61        62         0         0
        69        70         0         0
        70        71         0         0
        71        72         0         0
        72        73         0         0
$ ... 38 like lines cut
$
$
$$$$  Force transducer defined to calculate contact forces on part 1.
$
*CONTACT_FORCE_TRANSDUCER_PENALTY 
$...>....1....>....2....>....3....>....4....>....5....>....6....>....7....>....8
$     ssid      msid     sstyp     mstyp
         5                   2

 
$
*SET_PART_LIST
$...>....1....>....2....>....3....>....4....>....5....>....6....>....7....>....8
         5
         1
$
$$$$$$$$$$$$$$$$$$$$$$$$$$$$$$$$$$$$$$$$$$$$$$$$$$$$$$$$$$$$$$$$$$$$$$$$$$$$$$$$
$
$$$$  Initial Conditions
$
$$$$$$$$$$$$$$$$$$$$$$$$$$$$$$$$$$$$$$$$$$$$$$$$$$$$$$$$$$$$$$$$$$$$$$$$$$$$$$$$
$
$$$$  Nodes of the part 1 (node set id = 2) are given an initial velocity
$$$$  in the y-direction of 10 m/s.
$
*INITIAL_VELOCITY
$     nsid    nsidex     boxid
         2
$       vx        vy        vz       vxr       vyr       vzy
       0.0      10.0       0.0       0.0       0.0       0.0
$
*SET_NODE_LIST
$      sid
         2
$     nid1      nid2      nid3      nid4      nid5      nid6      nid7      nid8
         1         2         3         4         5         6         7         8
         9        10        11        12        13        14        15        16
        17        18        19        20        21        22        23        24
        25        26        27        28        29        30        31        32
        33        34        35        36        37        38        39        40
        41        42        43        44        45        46        47        48
        49        50        51        52        53        54        55        56
        57        58        59        60        61        62        63        64
        65        66        67        68
$
$$$$$$$$$$$$$$$$$$$$$$$$$$$$$$$$$$$$$$$$$$$$$$$$$$$$$$$$$$$$$$$$$$$$$$$$$$$$$$$$
$
$$$$  Define Parts and Materials
$
$$$$$$$$$$$$$$$$$$$$$$$$$$$$$$$$$$$$$$$$$$$$$$$$$$$$$$$$$$$$$$$$$$$$$$$$$$$$$$$$
$
$...>....1....>....2....>....3....>....4....>....5....>....6....>....7....>....8
$
*PART
$      pid       sid       mid     eosid      hgid    adpopt
plate-1
         1         1         1
plate-2
         2         1         1
plate-3
         3         1         1
$
$
*MAT_PLASTIC_KINEMATIC
$      mid        ro         e        pr      sigy      etan      beta
         1   7.85e+3 200.0e+09     0.300   2.0e+09
$      src       srp        fs
       0.0       0.0       0.0
$
$
*SECTION_SHELL
$      sid    elform      shrf       nip     propt   qr/irid     icomp
         1
$       t1        t2        t3        t4      nloc
 2.000E-03 2.000E-03 2.000E-03 2.000E-03
$
$$$$$$$$$$$$$$$$$$$$$$$$$$$$$$$$$$$$$$$$$$$$$$$$$$$$$$$$$$$$$$$$$$$$$$$$$$$$$$$$
$
$$$$  Define Nodes and Elements
$
$$$$$$$$$$$$$$$$$$$$$$$$$$$$$$$$$$$$$$$$$$$$$$$$$$$$$$$$$$$$$$$$$$$$$$$$$$$$$$$$
$
*NODE
$   node               x               y               z      tc      rc
       1    0.000000E+00   -1.000000E-01    1.500000E+00       0       0
       2    1.250000E+00   -1.000000E-01    1.500000E+00       0       0
       3    2.500000E+00   -1.000000E-01    1.500000E+00       0       0
       4    0.000000E+00   -1.433333E+00    1.500000E+00       0       0
       5    1.250000E+00   -1.433333E+00    1.500000E+00       0       0
       6    2.500000E+00   -1.433333E+00    1.500000E+00       0       0
       7    0.000000E+00   -2.766667E+00    1.500000E+00       0       0
       8    1.250000E+00   -2.766667E+00    1.500000E+00       0       0
       9    2.500000E+00   -2.766667E+00    1.500000E+00       0       0
      10    0.000000E+00   -4.100000E+00    1.500000E+00       0       0
      11    1.250000E+00   -4.100000E+00    1.500000E+00       0       0
      12    2.500000E+00   -4.100000E+00    1.500000E+00       0       0
      13    3.750000E+00   -1.000000E-01   -5.000000E-01       0       0
      14    5.000000E+00   -1.000000E-01   -2.500000E+00       0       0
      15    3.750000E+00   -1.433333E+00   -5.000000E-01       0       0
      16    5.000000E+00   -1.433333E+00   -2.500000E+00       0       0
      17    3.750000E+00   -2.766667E+00   -5.000000E-01       0       0
      18    5.000000E+00   -2.766667E+00   -2.500000E+00       0       0
      19    3.750000E+00   -4.100000E+00   -5.000000E-01       0       0
      20    5.000000E+00   -4.100000E+00   -2.500000E+00       0       0
$ ... 172 like lines cut
$
$$$$$$$$  SHELL ELEMENTS
$
*ELEMENT_SHELL
$    eid     pid      n1      n2      n3      n4
       1       1       1       4       5       2
       2       1       2       5       6       3
       3       1       4       7       8       5
       4       1       5       8       9       6
       5       1       7      10      11       8
       6       1       8      11      12       9
       7       1       3       6      15      13
       8       1      13      15      16      14
       9       1       6       9      17      15
      10       1      15      17      18      16
      11       1       9      12      19      17
      12       1      17      19      20      18
      13       1      14      16      23      21
      14       1      21      23      24      22
      15       1      16      18      25      23
      16       1      23      25      26      24
      17       1      18      20      27      25
      18       1      25      27      28      26
      19       1      22      24      31      29
      20       1      29      31      32      30
$ ... 115 like lines cut
$
*END
