*KEYWORD
*TITLE
Lobotto Integration
$
$  LSTC Example
$
$  Last Modified: September 17, 1997
$
$  Units: lbf-s2/in, in, s, lbf, psi, lbf-in
$
$$$$$$$$$$$$$$$$$$$$$$$$$$$$$$$$$$$$$$$$$$$$$$$$$$$$$$$$$$$$$$$$$$$$$$$$$$$$$$$$
$
$$$$  Control Ouput
$
$$$$$$$$$$$$$$$$$$$$$$$$$$$$$$$$$$$$$$$$$$$$$$$$$$$$$$$$$$$$$$$$$$$$$$$$$$$$$$$$
$
$...>....1....>....2....>....3....>....4....>....5....>....6....>....7....>....8
$
*CONTROL_TERMINATION
$   endtim    endcyc     dtmin    endneg    endmas
     0.015
$
*CONTROL_ENERGY
$     hgen      rwen    slnten     rylen 
         2
$
*CONTROL_OUTPUT
$    npopt    neecho    nrefup    iaccop     opifs    ipnint    ikedit
         0         0         0         0                   2      1000
$
$
*DATABASE_BINARY_D3PLOT
$       dt      lcdt
    0.0003
$
*DATABASE_BINARY_D3THDT
$       dt      lcdt
       10.
$
*DATABASE_EXTENT_BINARY
$    neiph     neips    maxint    strflg    sigflg    epsflg    rltflg    engflg
                             5          
$   cmpflg    ieverp    beamip

$
*DATABASE_GLSTAT
$       dt
    0.0001
$
*DATABASE_ELOUT
$       dt
    0.0001
$
*DATABASE_HISTORY_SHELL
$      id1       id2       id3       id4       id5       id6       id7       id8
         1
$
*DATABASE_NODOUT
$       dt
    0.0001
$
*DATABASE_HISTORY_NODE
$      id1       id2       id3       id4       id5       id6       id7       id8
        31
$
$$$$$$$$$$$$$$$$$$$$$$$$$$$$$$$$$$$$$$$$$$$$$$$$$$$$$$$$$$$$$$$$$$$$$$$$$$$$$$$$
$
$$$$  Loading
$
$$$$$$$$$$$$$$$$$$$$$$$$$$$$$$$$$$$$$$$$$$$$$$$$$$$$$$$$$$$$$$$$$$$$$$$$$$$$$$$$
$
$$$$  Load nodes 31, 62, 93 in the negative z-direction.
$
$...>....1....>....2....>....3....>....4....>....5....>....6....>....7....>....8
$
*LOAD_NODE_POINT
$      nid       dof      lcid        sf       cid        m1        m2        m3
        31         3         1 -1.00E+00
        62         3         1 -1.00E+00
        93         3         1 -1.00E+00
$
*DEFINE_CURVE
$     lcid      sidr      scla      sclo      offa      offo
         1
$                  a                   o
           0.000E+00           0.000E+00
           8.000E-03           1.667E-03
           1.534E-02           1.667E-03
$
$$$$$$$$$$$$$$$$$$$$$$$$$$$$$$$$$$$$$$$$$$$$$$$$$$$$$$$$$$$$$$$$$$$$$$$$$$$$$$$$
$
$$$$  Damping
$
$$$$$$$$$$$$$$$$$$$$$$$$$$$$$$$$$$$$$$$$$$$$$$$$$$$$$$$$$$$$$$$$$$$$$$$$$$$$$$$$
$
$...>....1....>....2....>....3....>....4....>....5....>....6....>....7....>....8
$
*DAMPING_GLOBAL
$     lcid    valdmp
         2       0.0
$
*DEFINE_CURVE
$     lcid      sidr      scla      sclo      offa      offo
         2
$                  a                   o
           0.000E+00           0.000E+00
           8.000E-03           0.000E+00
           1.000E-02           2.353E+03
           1.534E-02           2.353E+03
$
$$$$$$$$$$$$$$$$$$$$$$$$$$$$$$$$$$$$$$$$$$$$$$$$$$$$$$$$$$$$$$$$$$$$$$$$$$$$$$$$
$
$$$$  Define Parts and Materials
$
$$$$$$$$$$$$$$$$$$$$$$$$$$$$$$$$$$$$$$$$$$$$$$$$$$$$$$$$$$$$$$$$$$$$$$$$$$$$$$$$
$
$...>....1....>....2....>....3....>....4....>....5....>....6....>....7....>....8
$
*PART
$      pid       sid       mid     eosid      hgid    adpopt
Cantilever Beam - Aluminum
         1         1         1
$
$
*MAT_PLASTIC_KINEMATIC
$      mid        ro         e        pr      sigy      etan      beta
         1   7.85e-4  10.00e+6     0.300   20000.0    100000       1.0
$      src       srp        fs
       0.0       0.0       0.0
$
$$$$  irid = -1  ===> integration rule 1 used (see below)
$
*SECTION_SHELL
$      sid    elform      shrf       nip     propt   qr/irid     icomp
         1         0                   5                  -1
$       t1        t2        t3        t4      nloc
     0.010     0.010     0.010     0.010
$
$$$$$$$$$$$$$$$$$$$$$$$$$$$$$$$$$$$$$$$$$$$$$$$$$$$$$$$$$$$$$$$$$$$$$$$$$$$$$$$$
$
$$$$  Integration Rule
$
$$$$$$$$$$$$$$$$$$$$$$$$$$$$$$$$$$$$$$$$$$$$$$$$$$$$$$$$$$$$$$$$$$$$$$$$$$$$$$$$
$
$...>....1....>....2....>....3....>....4....>....5....>....6....>....7....>....8
$
*INTEGRATION_SHELL
$     irid       nip      esop
         1         5
$        s        wf       pid
-1.000E+00 1.000E-01
-6.546E-01 5.444E-01
 0.000E+00 7.111E-01
 6.546E-01 5.444E-01
 1.000E+00 1.000E-01
$
$$$$$$$$$$$$$$$$$$$$$$$$$$$$$$$$$$$$$$$$$$$$$$$$$$$$$$$$$$$$$$$$$$$$$$$$$$$$$$$$
$
$$$$  Define Nodes and Elements
$
$$$$$$$$$$$$$$$$$$$$$$$$$$$$$$$$$$$$$$$$$$$$$$$$$$$$$$$$$$$$$$$$$$$$$$$$$$$$$$$$
$
*NODE
$   node               x               y               z      tc      rc
       1    0.000000E+00    0.000000E+00    0.000000E+00       7       7
       2    3.333334E-02    0.000000E+00    0.000000E+00       2       6
       3    6.666667E-02    0.000000E+00    0.000000E+00       2       6
       4    1.000000E-01    0.000000E+00    0.000000E+00       2       6
       5    1.333333E-01    0.000000E+00    0.000000E+00       2       6
       6    1.666667E-01    0.000000E+00    0.000000E+00       2       6
       7    2.000000E-01    0.000000E+00    0.000000E+00       2       6
       8    2.333333E-01    0.000000E+00    0.000000E+00       2       6
       9    2.666667E-01    0.000000E+00    0.000000E+00       2       6
      10    3.000000E-01    0.000000E+00    0.000000E+00       2       6
      11    3.333333E-01    0.000000E+00    0.000000E+00       2       6
      12    3.666667E-01    0.000000E+00    0.000000E+00       2       6
      13    4.000000E-01    0.000000E+00    0.000000E+00       2       6
      14    4.333333E-01    0.000000E+00    0.000000E+00       2       6
      15    4.666667E-01    0.000000E+00    0.000000E+00       2       6
      16    5.000000E-01    0.000000E+00    0.000000E+00       2       6
      17    5.333334E-01    0.000000E+00    0.000000E+00       2       6
      18    5.666667E-01    0.000000E+00    0.000000E+00       2       6
      19    6.000000E-01    0.000000E+00    0.000000E+00       2       6
      20    6.333333E-01    0.000000E+00    0.000000E+00       2       6
$ ... 73 like lines cut
$
$$$$$  Shell Elements
$
*ELEMENT_SHELL
$    eid     pid      n1      n2      n3      n4
       1       1       1      32      33       2
       2       1       2      33      34       3
       3       1       3      34      35       4
       4       1       4      35      36       5
       5       1       5      36      37       6
       6       1       6      37      38       7
       7       1       7      38      39       8
       8       1       8      39      40       9
       9       1       9      40      41      10
      10       1      10      41      42      11
      11       1      11      42      43      12
      12       1      12      43      44      13
      13       1      13      44      45      14
      14       1      14      45      46      15
      15       1      15      46      47      16
      16       1      16      47      48      17
      17       1      17      48      49      18
      18       1      18      49      50      19
      19       1      19      50      51      20
      20       1      20      51      52      21
$ ... 40 like lines cut
$
*END
