*KEYWORD
*TITLE
Symmetric Short Crush Tube Impacted by a Moving Wall
$
$  LSTC Example
$
$  Last Modified: October 10, 1997
$
$ Symmetric model - 1/4 of the tube
$   - Remove corner elements on desired initial crush area (2 shells)
$       shells commented out: 409, 410
$
$  Units: mm, kg, ms, kN, GPa, kN-mm
$
$$$$$$$$$$$$$$$$$$$$$$$$$$$$$$$$$$$$$$$$$$$$$$$$$$$$$$$$$$$$$$$$$$$$$$$$$$$$$$$$
$
$$$$  Control Ouput
$
$$$$$$$$$$$$$$$$$$$$$$$$$$$$$$$$$$$$$$$$$$$$$$$$$$$$$$$$$$$$$$$$$$$$$$$$$$$$$$$$
$
$...>....1....>....2....>....3....>....4....>....5....>....6....>....7....>....8
$
*CONTROL_TERMINATION 
$   endtim    endcyc     dtmin    endneg    endmas
     15.01         0       0.0       0.0       0.0
$
*CONTROL_ENERGY
$     hgen      rwen    slnten     rylen
         2         2         2
$
*CONTROL_OUTPUT
$    npopt    neecho    nrefup    iaccop     opifs    ipnint    ikedit
         1         3
$
$
*DATABASE_BINARY_D3PLOT
$       dt       lcdt 
       1.0
$
*DATABASE_EXTENT_BINARY
$    neiph     neips    maxint    strflg    sigflg    epsflg    rltflg    engflg

$   cmpflg    ieverp    beamip
                   1
$
*DATABASE_BINARY_D3THDT
$       dt       lcdt 
    999999
$
*DATABASE_GLSTAT
$       dt
       0.1
$
*DATABASE_MATSUM
$       dt
       0.1
$
*DATABASE_NODOUT
$       dt
       0.1
$
*DATABASE_HISTORY_NODE
$      id1       id2       id3       id4       id5       id6       id7       id8
     99999       414       486
$
*DATABASE_RWFORC
$       dt
       0.1
$
*DATABASE_SLEOUT
$       dt
       0.1
$
$$$$$$$$$$$$$$$$$$$$$$$$$$$$$$$$$$$$$$$$$$$$$$$$$$$$$$$$$$$$$$$$$$$$$$$$$$$$$$$$
$
$$$$  Define Contacts - Sliding Interfaces
$
$$$$$$$$$$$$$$$$$$$$$$$$$$$$$$$$$$$$$$$$$$$$$$$$$$$$$$$$$$$$$$$$$$$$$$$$$$$$$$$$
$
$...>....1....>....2....>....3....>....4....>....5....>....6....>....7....>....8
$
*CONTACT_AUTOMATIC_SINGLE_SURFACE
$     ssid      msid     sstyp     mstyp    sboxid    mboxid       spr       mpr
         0
$  Equating ssid to zero means that all segments are included in the contact
$  
$       fs        fd        dc        vc       vdc    penchk        bt        dt
      0.08      0.08
$
$      sfs       sfm       sst       mst      sfst      sfmt       fsf       vsf

$
$$$$$$$$$$$$$$$$$$$$$$$$$$$$$$$$$$$$$$$$$$$$$$$$$$$$$$$$$$$$$$$$$$$$$$$$$$$$$$$$
$
$$$$  Define Rigidwalls
$
$$$$$$$$$$$$$$$$$$$$$$$$$$$$$$$$$$$$$$$$$$$$$$$$$$$$$$$$$$$$$$$$$$$$$$$$$$$$$$$$
$
$...>....1....>....2....>....3....>....4....>....5....>....6....>....7....>....8
$
*RIGIDWALL_PLANAR_MOVING_FORCES
$     nsid    nsidex     boxid
         0         0         0
$
$       xt        yt        zt        xh        yh        zh      fric
       0.0       0.0     274.0       0.0       0.0       0.0       1.0
$
$  sw mass    sw vel
   800.000   8.94000
$
$     soft      ssid     node1     node2     node3     node4
         0         0     99999
$
$$$$$$$$$$$$$$$$$$$$$$$$$$$$$$$$$$$$$$$$$$$$$$$$$$$$$$$$$$$$$$$$$$$$$$$$$$$$$$$$
$
$$$$  Define Parts and Materials
$
$$$$$$$$$$$$$$$$$$$$$$$$$$$$$$$$$$$$$$$$$$$$$$$$$$$$$$$$$$$$$$$$$$$$$$$$$$$$$$$$
$ 
$...>....1....>....2....>....3....>....4....>....5....>....6....>....7....>....8
$
*PART
$      pid       sid       mid     eosid      hgid      grav    adpopt
corner1
         1         1         1
$
$
*MAT_PIECEWISE_LINEAR_PLASTICITY
$      mid        ro         e        pr      sigy      etan      eppf      tdel
         1 7.830E-06     200.0       0.3     0.207               0.750
$
$        c         p      lcss      lcsr
        40         5
$  PLASTIC STRESS/STRAIN CURVES
$     eps1      eps2      eps3      eps4      eps5      eps6      eps7      eps8
     0.000     0.080     0.160     0.400     0.750
$      es1       es2       es3       es4       es5       es6       es7       es8
     0.207     0.250     0.275     0.290     0.300
$
$
*SECTION_SHELL
$      sid    elform      shrf       nip     propt   qr/irid     icomp
         1         2              3.0000
$       t1        t2        t3        t4      nloc
      2.00      2.00      2.00      2.00
$
$$$$$$$$$$$$$$$$$$$$$$$$$$$$$$$$$$$$$$$$$$$$$$$$$$$$$$$$$$$$$$$$$$$$$$$$$$$$$$$$
$
$$$$  Define Constraints and Boundary
$
$$$$$$$$$$$$$$$$$$$$$$$$$$$$$$$$$$$$$$$$$$$$$$$$$$$$$$$$$$$$$$$$$$$$$$$$$$$$$$$$
$
$...>....1....>....2....>....3....>....4....>....5....>....6....>....7....>....8
$
$ Nodal single point constraints (SPC's)
$   - fix on bottom of tube
$   - symmetry along both sides of tube
$
*BOUNDARY_SPC_NODE
$      nid cid x y z rx ry rz
         1,  0,1,1,1, 1, 1, 1
         2,  0,1,1,1, 1, 1, 1
         3,  0,1,1,1, 1, 1, 1
         4,  0,1,1,1, 1, 1, 1
         5,  0,1,1,1, 1, 1, 1
         6,  0,1,1,1, 1, 1, 1
         7,  0,1,1,1, 1, 1, 1
       414,  0,1,1,1, 1, 1, 1
       415,  0,1,1,1, 1, 1, 1
       532,  0,1,1,1, 1, 1, 1
       533,  0,1,1,1, 1, 1, 1
       534,  0,1,1,1, 1, 1, 1
       535,  0,1,1,1, 1, 1, 1
       536,  0,1,1,1, 1, 1, 1
       537,  0,0,1,0, 1, 0, 1
       542,  0,0,1,0, 1, 0, 1
       547,  0,0,1,0, 1, 0, 1
       552,  0,0,1,0, 1, 0, 1
       557,  0,0,1,0, 1, 0, 1
       562,  0,0,1,0, 1, 0, 1
$ ... 66 like lines cut
$
$$$$$$$$$$$$$$$$$$$$$$$$$$$$$$$$$$$$$$$$$$$$$$$$$$$$$$$$$$$$$$$$$$$$$$$$$$$$$$$$
$
$$$$  Define Nodes and Elements
$
$$$$$$$$$$$$$$$$$$$$$$$$$$$$$$$$$$$$$$$$$$$$$$$$$$$$$$$$$$$$$$$$$$$$$$$$$$$$$$$$
$
$...>....1....>....2....>....3....>....4....>....5....>....6....>....7....>....8
$
*NODE
$    nid               x               y               z      tc      rc
   99999             0.0             0.0           274.0       0       0
       1 -5.00000000E+01 -4.80000000E+01 0.000000000E+00       0       0
       2 -4.16667000E+01 -4.80000000E+01 0.000000000E+00       0       0
       3 -3.33333000E+01 -4.80000000E+01 0.000000000E+00       0       0
       4 -2.50000000E+01 -4.80000000E+01 0.000000000E+00       0       0
       5 -1.66667000E+01 -4.80000000E+01 0.000000000E+00       0       0
       6 -8.33330000E+00 -4.80000000E+01 0.000000000E+00       0       0
       7 0.000000000E+00 -4.80000000E+01 0.000000000E+00       0       0
       8 -5.00000000E+01 -4.80000000E+01 7.568970000E+00       0       0
       9 -4.16667000E+01 -4.80000000E+01 7.568970000E+00       0       0
      10 -3.33333000E+01 -4.80000000E+01 7.568970000E+00       0       0
      11 -2.50000000E+01 -4.80000000E+01 7.568970000E+00       0       0
      12 -1.66667000E+01 -4.80000000E+01 7.568970000E+00       0       0
      13 -8.33330000E+00 -4.80000000E+01 7.568970000E+00       0       0
      14 0.000000000E+00 -4.80000000E+01 7.568970000E+00       0       0
      15 -5.00000000E+01 -4.80000000E+01 1.513790000E+01       0       0
      16 -4.16667000E+01 -4.80000000E+01 1.513790000E+01       0       0
      17 -3.33333000E+01 -4.80000000E+01 1.513790000E+01       0       0
      18 -2.50000000E+01 -4.80000000E+01 1.513790000E+01       0       0
      19 -1.66667000E+01 -4.80000000E+01 1.513790000E+01       0       0
$ ... 499 like lines cut
$
$$$$$$$$$    Shell Elements
$
*ELEMENT_SHELL
$    eid     pid      n1      n2      n3      n4   
     752       1     547     552     553     553
     753       1     553     548     547     547
       1       1       1       2       9       8
       2       1       2       3      10       9
       3       1       3       4      11      10
       4       1       4       5      12      11
       5       1       5       6      13      12
       6       1       6       7      14      13
       7       1       8       9      16      15
       8       1       9      10      17      16
       9       1      10      11      18      17
      10       1      11      12      19      18
      11       1      12      13      20      19
      12       1      13      14      21      20
      13       1      15      16      23      22
      14       1      16      17      24      23
      15       1      17      18      25      24
      16       1      18      19      26      25
      17       1      19      20      27      26
      18       1      20      21      28      27
$ ... 258 like lines cut
$     409       1     211     474     476     218
$     410       1     474     475     477     476
     411       1     218     476     478     225
     412       1     476     477     479     478
     413       1     225     478     480     232
     414       1     478     479     481     480
     415       1     232     480     482     239
     416       1     480     481     483     482
     417       1     239     482     484     246
     418       1     482     483     485     484
     419       1     246     484     486     253
     420       1     484     485     487     486
     463       1     532     533     538     537
     464       1     533     534     539     538
     465       1     534     535     540     539
     466       1     535     536     541     540
     467       1     536     415     417     541
     468       1     537     538     543     542
     469       1     538     539     544     543
     470       1     539     540     545     544
     471       1     540     541     546     545
     472       1     541     417     419     546
$ ... 169 like lines cut
$
*END
