*KEYWORD
*TITLE
A post with a hole is hit by a beam and is supposed to snap at the hole.
$
$  LSTC Example
$
$  Last Modified: October 15, 1997
$
$$  This model uses constant stress solid element formulation (default: type 1)
$$  for the posts and default hourglass viscosity type 1.  This formulation
$$  results in considerable hourglassing and incomplete failure of the post.
$
$   By switching the solid element formulation to fully integrated S/R (type 2)
$   results are much cleaner.
$
$  Units: mm, kg, ms, kN, GPa, kN-mm
$
$$$$$$$$$$$$$$$$$$$$$$$$$$$$$$$$$$$$$$$$$$$$$$$$$$$$$$$$$$$$$$$$$$$$$$$$$$$$$$$$
$
$$$$  Control Ouput
$
$$$$$$$$$$$$$$$$$$$$$$$$$$$$$$$$$$$$$$$$$$$$$$$$$$$$$$$$$$$$$$$$$$$$$$$$$$$$$$$$
$
$...>....1....>....2....>....3....>....4....>....5....>....6....>....7....>....8
$
*CONTROL_TERMINATION 
$   endtim    endcyc     dtmin    endneg    endmas
      5.00
$
*CONTROL_ENERGY
$     hgen      rwen    slnten     rylen
         2         2
$
*CONTROL_OUTPUT
$    npopt    neecho    nrefup    iaccop     opifs    ipnint    ikedit
         1         3
$
$
*DATABASE_BINARY_D3PLOT
$       dt      lcdt
       0.5
$
*DATABASE_EXTENT_BINARY
$    neiph     neips    maxint    strflg    sigflg    epsflg    rltflg    engflg

$   cmpflg    ieverp    beamip
                   1
$
*DATABASE_BINARY_D3THDT
$       dt      lcdt
    999999
$      
*DATABASE_GLSTAT
$       dt
      0.10
$
*DATABASE_MATSUM
$       dt
      0.10
$
*DATABASE_NODOUT
$       dt
      0.10
$
*DATABASE_HISTORY_NODE
$      id1       id2       id3       id4       id5       id6       id7       id8
       758
$
*DATABASE_RBDOUT
$       dt
      0.10
$
$$$$$$$$$$$$$$$$$$$$$$$$$$$$$$$$$$$$$$$$$$$$$$$$$$$$$$$$$$$$$$$$$$$$$$$$$$$$$$$$
$
$$$$  Define Contacts - Sliding Interfaces
$
$$$$$$$$$$$$$$$$$$$$$$$$$$$$$$$$$$$$$$$$$$$$$$$$$$$$$$$$$$$$$$$$$$$$$$$$$$$$$$$$
$
*CONTACT_ERODING_SINGLE_SURFACE
$     ssid      msid     sstyp     mstyp    sboxid    mboxid       spr       mpr
         0
$       fs        fd        dc        vc       vdc    penchk        bt        dt

$      sfs       sfm       sst       mst      sfst      sfmt       fsf       vsf

$     isym    erosop      iadj
                   1         1
$
$$$$$$$$$$$$$$$$$$$$$$$$$$$$$$$$$$$$$$$$$$$$$$$$$$$$$$$$$$$$$$$$$$$$$$$$$$$$$$$$
$
$$$$  Initial and Boundary Conditions
$
$$$$$$$$$$$$$$$$$$$$$$$$$$$$$$$$$$$$$$$$$$$$$$$$$$$$$$$$$$$$$$$$$$$$$$$$$$$$$$$$
$
$...>....1....>....2....>....3....>....4....>....5....>....6....>....7....>....8
$
$$$$  The beam (part 3) is given an initial velocity towards the post.
$
*INITIAL_VELOCITY_GENERATION
$      sid      styp     omega        vx        vy        vz
         3         2                27.8       0.0       0.0
$       xc        yc        zc        nx        ny        nz     phase

$
$$$$  Fix the bottom nodes of the post.
$
*BOUNDARY_SPC_NODE
$...>....1....>....2....>....3....>....4....>....5....>....6....>....7....>....8
$      nid cid x y z rx ry rz
       163,  0,1,1,1, 1, 1, 1
       166,  0,1,1,1, 1, 1, 1
       169,  0,1,1,1, 1, 1, 1
       172,  0,1,1,1, 1, 1, 1
       175,  0,1,1,1, 1, 1, 1
       178,  0,1,1,1, 1, 1, 1
       181,  0,1,1,1, 1, 1, 1
       184,  0,1,1,1, 1, 1, 1
       187,  0,1,1,1, 1, 1, 1
       307,  0,1,1,1, 1, 1, 1
       310,  0,1,1,1, 1, 1, 1
       313,  0,1,1,1, 1, 1, 1
       316,  0,1,1,1, 1, 1, 1
       319,  0,1,1,1, 1, 1, 1
       322,  0,1,1,1, 1, 1, 1
       391,  0,1,1,1, 1, 1, 1
       394,  0,1,1,1, 1, 1, 1
       397,  0,1,1,1, 1, 1, 1
       400,  0,1,1,1, 1, 1, 1
       403,  0,1,1,1, 1, 1, 1
$ ... 8 like lines cut
$
$$$$$$$$$$$$$$$$$$$$$$$$$$$$$$$$$$$$$$$$$$$$$$$$$$$$$$$$$$$$$$$$$$$$$$$$$$$$$$$$
$
$$$$  Define Parts and Materials
$
$$$$$$$$$$$$$$$$$$$$$$$$$$$$$$$$$$$$$$$$$$$$$$$$$$$$$$$$$$$$$$$$$$$$$$$$$$$$$$$$
$
$...>....1....>....2....>....3....>....4....>....5....>....6....>....7....>....8
$ 
$$$ Part    3    shell: beam
$
$$$ Part    4    solid: lower_post
$
$$$ Part    5    solid: upper_post
$
$ 
*PART
$      pid       sid       mid     eosid      hgid      grav    adpopt
bumper
         3         1         1
lower_post
         4         2         2
upper_post
         5         2         3
$
$
$$$$   Materials
$
$$  Bumper - Rigid, constrained to translate only in the x-direction
$ 
*MAT_RIGID
$      mid        ro         e        pr         n    couple         m     alias
         1 0.143E-02     200.0      0.33
$
$      cmo      con1      con2
       1.0         5         7
$
$   lco/a1        a2        a3        v1        v2        v3

$
$
$$  Post - the lower portion is softer and fails sooner than the upper portion
$ 
*MAT_PIECEWISE_LINEAR_PLASTICITY
$      mid        ro         e        pr      sigy      etan      eppf      tdel
         2 0.499E-06     11.37      0.32    0.0468                0.11
$
$        c         p      lcss      lcsr

$  Plastic stress/strain curve
    0.0000    0.2500
    0.0468    0.0470
$
$
*MAT_PIECEWISE_LINEAR_PLASTICITY
$      mid        ro         e        pr      sigy      etan      eppf      tdel
         3 0.499E-06    110.37      0.32    0.0468                0.25
$
$        c         p      lcss      lcsr

$  Plastic stress/strain curve
    0.0000    0.2500
    0.0468    0.0470
$
$
$$$$   Sections
$
*SECTION_SHELL
$      sid    elform      shrf       nip     propt   qr/irid     icomp
         1         2                 3.0
$       t1        t2        t3        t4      nloc
      1.54      1.54      1.54      1.54
$
$
*SECTION_SOLID
$      sid    elform
         2         1
$
$
$$$$$$$$$$$$$$$$$$$$$$$$$$$$$$$$$$$$$$$$$$$$$$$$$$$$$$$$$$$$$$$$$$$$$$$$$$$$$$$$
$
$$$$  Define Nodes and Elements
$
$$$$$$$$$$$$$$$$$$$$$$$$$$$$$$$$$$$$$$$$$$$$$$$$$$$$$$$$$$$$$$$$$$$$$$$$$$$$$$$$
$
$...>....1....>....2....>....3....>....4....>....5....>....6....>....7....>....8
$
*NODE
$    nid               x               y               z      tc      rc
      32 -1.23794000E+02 1.200000000E+03 3.910000000E+02       0       0
      33 -1.23794000E+02 1.257150000E+03 3.910000000E+02       0       0
      34 -1.23794000E+02 1.314300000E+03 3.910000000E+02       0       0
      35 -1.23794000E+02 1.371450000E+03 3.910000000E+02       0       0
      36 -1.23794000E+02 1.428600000E+03 3.910000000E+02       0       0
      37 -1.23794000E+02 1.485750000E+03 3.910000000E+02       0       0
      48 -7.37940000E+01 1.200000000E+03 3.910000000E+02       0       0
      49 -7.37940000E+01 1.257150000E+03 3.910000000E+02       0       0
      50 -7.37940000E+01 1.314300000E+03 3.910000000E+02       0       0
      51 -7.37940000E+01 1.371450000E+03 3.910000000E+02       0       0
      52 -7.37940000E+01 1.428600000E+03 3.910000000E+02       0       0
      53 -7.37940000E+01 1.485750000E+03 3.910000000E+02       0       0
      64 -1.23794000E+02 1.200000000E+03 5.300000000E+02       0       0
      65 -1.23794000E+02 1.257150000E+03 5.300000000E+02       0       0
      66 -1.23794000E+02 1.314300000E+03 5.300000000E+02       0       0
      67 -1.23794000E+02 1.371450000E+03 5.300000000E+02       0       0
      68 -1.23794000E+02 1.428600000E+03 5.300000000E+02       0       0
      69 -1.23794000E+02 1.485750000E+03 5.300000000E+02       0       0
      80 -7.37940000E+01 1.200000000E+03 5.300000000E+02       0       0
      81 -7.37940000E+01 1.257150000E+03 5.300000000E+02       0       0
$ ... 509 like lines cut
$
$$$$$$$$$    Solid Elements
$
*ELEMENT_SOLID
$    eid     pid      n1      n2      n3      n4      n5      n6      n7      n8
       1       4     163     172     175     166     164     173     176     167
       2       4     172     181     184     175     173     182     185     176
       3       4     166     175     178     169     167     176     179     170
       4       4     175     184     187     178     176     185     188     179
       5       4     164     173     176     167     165     174     177     168
       6       4     173     182     185     176     174     183     186     177
       7       4     167     176     179     170     168     177     180     171
       8       4     176     185     188     179     177     186     189     180
       9       4     165     174     177     168     190     199     202     193
      10       4     174     183     186     177     199     208     211     202
      11       4     168     177     180     171     193     202     205     196
      12       4     177     186     189     180     202     211     214     205
      13       4     190     199     202     193     191     200     203     194
      14       4     199     208     211     202     200     209     212     203
      15       4     193     202     205     196     194     203     206     197
      16       4     202     211     214     205     203     212     215     206
      17       4     191     200     203     194     192     201     204     195
      18       4     200     209     212     203     201     210     213     204
      19       4     194     203     206     197     195     204     207     198
      20       4     203     212     215     206     204     213     216     207
$ ... 232 like lines cut
$
$$$$$$$$$    Shell Elements
$
*ELEMENT_SHELL
$    eid     pid      n1      n2      n3      n4   
     355       3      32      48      49      33
     356       3      33      49      50      34
     357       3      34      50      51      35
     358       3      35      51      52      36
     359       3      36      52      53      37
     371       3      64      80      81      65
     372       3      65      81      82      66
     373       3      66      82      83      67
     374       3      67      83      84      68
     375       3      68      84      85      69
     449       3      48     713     751     714
     450       3     713      49     716     751
     451       3     751     716     137     736
     452       3     714     751     736     135
     453       3      49     715     752     716
     454       3     715      50     718     752
     455       3     752     718     139     739
     456       3     716     752     739     137
     457       3      50     717     753     718
     458       3     717      51     720     753
$ ... 50 like lines cut
$
$
*END
