*KEYWORD
*TITLE
Hemispherical Shell
$
$  LSTC Example
$
$  Last Modified: September 12, 1997
$
$  Units: lbf-s2/in, in, s, lbf, psi, lbf-in
$
$$$$$$$$$$$$$$$$$$$$$$$$$$$$$$$$$$$$$$$$$$$$$$$$$$$$$$$$$$$$$$$$$$$$$$$$$$$$$$$$
$
$$$$  Control Ouput
$
$$$$$$$$$$$$$$$$$$$$$$$$$$$$$$$$$$$$$$$$$$$$$$$$$$$$$$$$$$$$$$$$$$$$$$$$$$$$$$$$
$
$...>....1....>....2....>....3....>....4....>....5....>....6....>....7....>....8
$
*CONTROL_TERMINATION
$   endtim    endcyc     dtmin    endneg    endmas
 6.000E-02
$
*CONTROL_ENERGY
$     hgen      rwen    slnten     rylen
         2         2
$
*CONTROL_HOURGLASS
$      ihq        qh
         4
$
*CONTROL_SHELL
$   wrpang    itrist     irnxx    istupd    theory       bwc     miter
                            -2                   1
$
$
*DATABASE_BINARY_D3PLOT
$       dt      lcdt
 6.000E-04
$
$$$$$$$$$$$$$$$$$$$$$$$$$$$$$$$$$$$$$$$$$$$$$$$$$$$$$$$$$$$$$$$$$$$$$$$$$$$$$$$$
$
$$$$  Loading
$
$$$$$$$$$$$$$$$$$$$$$$$$$$$$$$$$$$$$$$$$$$$$$$$$$$$$$$$$$$$$$$$$$$$$$$$$$$$$$$$$
$
$$$$  Load node  1 in the positive x-direction.
$
*LOAD_NODE_POINT
$      nid       dof      lcid        sf       cid        m1        m2        m3
         1         3         1       1.0
$
$$$$  Load node 46 in the negative z-direction.
$
*LOAD_NODE_POINT
$      nid       dof      lcid        sf       cid        m1        m2        m3
        46         1         1      -1.0
$
$
*DEFINE_CURVE
$     lcid      sidr      scla      sclo      offa      offo
         1
$           abscissa            ordinate
           0.000E+00           1.000E+00
           1.000E+00           1.000E+00
$
$$$$$$$$$$$$$$$$$$$$$$$$$$$$$$$$$$$$$$$$$$$$$$$$$$$$$$$$$$$$$$$$$$$$$$$$$$$$$$$$
$
$$$$  Define Parts and Materials
$
$$$$$$$$$$$$$$$$$$$$$$$$$$$$$$$$$$$$$$$$$$$$$$$$$$$$$$$$$$$$$$$$$$$$$$$$$$$$$$$$
$
$...>....1....>....2....>....3....>....4....>....5....>....6....>....7....>....8
$
*PART
$      pid       sid       mid     eosid      hgid    adpopt
Hemisphere
         1         1         1
$
$
*MAT_PLASTIC_KINEMATIC
$      mid        ro         e        pr      sigy      etan      beta
         1 1.000E-03 6.825E+07       0.3 600000.00 0.000E+00 0.000E+00
$      src       srp        fs
 0.000E+00 0.000E+00 0.000E+00
$
$
*SECTION_SHELL
$      sid    elform      shrf       nip     propt   qr/irid     icomp
         1                             5
$       t1        t2        t3        t4      nloc
 4.000E-02 4.000E-02 4.000E-02 4.000E-02
$
$$$$$$$$$$$$$$$$$$$$$$$$$$$$$$$$$$$$$$$$$$$$$$$$$$$$$$$$$$$$$$$$$$$$$$$$$$$$$$$$
$
$$$$  Define Nodes and Elements
$
$$$$$$$$$$$$$$$$$$$$$$$$$$$$$$$$$$$$$$$$$$$$$$$$$$$$$$$$$$$$$$$$$$$$$$$$$$$$$$$$
$
$$$$  Multiple nodes have boundary conditions to simulate symmetry.
$
*NODE
$   node               x               y               z      tc      rc
       1    0.000000E+00    0.000000E+00    1.000000E+01       1       5
       2    1.950897E+00    0.000000E+00    9.807854E+00       0       0
       3    3.826834E+00    0.000000E+00    9.238795E+00       0       0
       4    5.555708E+00    0.000000E+00    8.314692E+00       0       0
       5    7.071068E+00    0.000000E+00    7.071068E+00       0       0
       6    0.000000E+00    1.950897E+00    9.807854E+00       1       5
       7    1.917918E+00    1.917918E+00    9.625133E+00       0       0
       8    3.777414E+00    1.835293E+00    9.075397E+00       0       0
       9    5.492154E+00    1.705178E+00    8.180991E+00       0       0
      10    6.987526E+00    1.532634E+00    6.987526E+00       0       0
      11    0.000000E+00    3.826834E+00    9.238795E+00       1       5
      12    1.835293E+00    3.777414E+00    9.075397E+00       0       0
      13    3.623552E+00    3.623552E+00    8.587185E+00       0       0
      14    5.281538E+00    3.370117E+00    7.794079E+00       0       0
      15    6.738873E+00    3.029055E+00    6.738873E+00       0       0
      16    0.000000E+00    5.555708E+00    8.314692E+00       1       5
      17    1.705178E+00    5.492155E+00    8.180990E+00       0       0
      18    3.370117E+00    5.281538E+00    7.794079E+00       0       0
      19    4.930554E+00    4.930554E+00    7.167934E+00       0       0
      20    6.330986E+00    4.453901E+00    6.330986E+00       0       0
$ ... 41 like lines cut
$
$$$$$  Shell Elements
$
*ELEMENT_SHELL
$    eid     pid      n1      n2      n3      n4
       1       1       1       6       7       2
       2       1       2       7       8       3
       3       1       3       8       9       4
       4       1       4       9      10       5
       5       1       6      11      12       7
       6       1       7      12      13       8
       7       1       8      13      14       9
       8       1       9      14      15      10
       9       1      11      16      17      12
      10       1      12      17      18      13
      11       1      13      18      19      14
      12       1      14      19      20      15
      13       1      16      21      22      17
      14       1      17      22      23      18
      15       1      18      23      24      19
      16       1      19      24      25      20
      17       1      26      31      32      27
      18       1      27      32      33      28
      19       1      28      33      34      29
      20       1      29      34      35      30
$ ... 28 like lines cut
$
*END
