*KEYWORD
*TITLE
ADAPTIVITY: circular cylinder (8x16)
$
$  LSTC Example
$
$  Last Modified: October 14, 1997
$
$  Units: lbf-s2/in, in, s, lbf, psi, lbf-in
$
$$$$$$$$$$$$$$$$$$$$$$$$$$$$$$$$$$$$$$$$$$$$$$$$$$$$$$$$$$$$$$$$$$$$$$$$$$$$$$$$
$
$$$$  Control Ouput
$
$$$$$$$$$$$$$$$$$$$$$$$$$$$$$$$$$$$$$$$$$$$$$$$$$$$$$$$$$$$$$$$$$$$$$$$$$$$$$$$$
$
$...>....1....>....2....>....3....>....4....>....5....>....6....>....7....>....8
$
*CONTROL_TERMINATION
$   endtim    endcyc     dtmin    endeng    endmas
    0.0004
$
*CONTROL_ENERGY
$     hgen      rwen    slnten     rylen
         2         2
$
*CONTROL_OUTPUT
$    npopt    neecho    nrefup    iaccop     opifs    ipnint    ikedit
         1         3
$
*CONTROL_SHELL
$   wrpang    itrist     irnxx    istupd    theory       bwc     miter
                                       1         2         1
$
$
*DATABASE_BINARY_D3PLOT
$       dt      lcdt
   0.00002
$
*DATABASE_GLSTAT
$       dt
   0.00002
$
*DATABASE_MATSUM
$       dt
   0.00002
$
$$$$$$$$$$$$$$$$$$$$$$$$$$$$$$$$$$$$$$$$$$$$$$$$$$$$$$$$$$$$$$$$$$$$$$$$$$$$$$$$
$
$$$$  Adaptivity
$
$$$$$$$$$$$$$$$$$$$$$$$$$$$$$$$$$$$$$$$$$$$$$$$$$$$$$$$$$$$$$$$$$$$$$$$$$$$$$$$$
$
$...>....1....>....2....>....3....>....4....>....5....>....6....>....7....>....8
$
*CONTROL_ADAPTIVE
$  adpfreq    adptol    adpopt    maxlvl    tbirth    tdeath     lcadp    ioflag
   1.01e-5      10.0         2         3       0.0       0.0         0         1
$
$
$$$$$$$$$$$$$$$$$$$$$$$$$$$$$$$$$$$$$$$$$$$$$$$$$$$$$$$$$$$$$$$$$$$$$$$$$$$$$$$$
$
$$$$  Define Parts and Materials
$
$$$$$$$$$$$$$$$$$$$$$$$$$$$$$$$$$$$$$$$$$$$$$$$$$$$$$$$$$$$$$$$$$$$$$$$$$$$$$$$$
$ 
$...>....1....>....2....>....3....>....4....>....5....>....6....>....7....>....8
$
*PART
$      pid       sid       mid     eosid      hgid      grav    adpopt
al6061-t6
         1         1         1         0         0         0         1
$
$
*MAT_PLASTIC_KINEMATIC
$      mid        ro         e        pr      sigy      etan      beta
         1 2.500E-04 1.050E+07 3.300E-01 4.400E+04 0.000E+00 1.000E+00
$
$      src       srp        fs
 0.000E+00 0.000E+00
$
$
*SECTION_SHELL
$      sid    elform      shrf       nip     propt   qr/irid     icomp
         1         2        1.        5.        0.        0.         0
$       t1        t2        t3        t4      nloc
     0.125     0.125     0.125     0.125
$
$$$$$$$$$$$$$$$$$$$$$$$$$$$$$$$$$$$$$$$$$$$$$$$$$$$$$$$$$$$$$$$$$$$$$$$$$$$$$$$$
$
$$$$  Boundary Conditions
$
$$$$$$$$$$$$$$$$$$$$$$$$$$$$$$$$$$$$$$$$$$$$$$$$$$$$$$$$$$$$$$$$$$$$$$$$$$$$$$$$
$
$...>....1....>....2....>....3....>....4....>....5....>....6....>....7....>....8
$
*BOUNDARY_SPC
$      nid       cid      dofx      dofy      dofz     dofrx     dofry     dofrz
         1         1         1         1         0         0         1         1
         2         1         1         0         0         0         1         1
         3         1         1         0         0         0         1         1
         4         1         1         0         0         0         1         1
         5         1         1         0         0         0         1         1
         6         1         1         0         0         0         1         1
         7         1         1         0         0         0         1         1
         8         1         1         0         0         0         1         1
         9         1         1         0         0         0         1         1
        10         1         1         0         0         0         1         1
        11         1         1         0         0         0         1         1
        12         1         1         0         0         0         1         1
        13         1         1         0         0         0         1         1
        14         1         1         0         0         0         1         1
        15         1         1         0         0         0         1         1
        16         1         1         0         0         0         1         1
        17         1         1         1         0         0         1         1
        18         2         0         1         0         0         1         1
        34         2         1         1         0         0         1         1
        35         3         0         1         0         0         1         1
$ ... 28 like lines cut
$
$
*DEFINE_COORDINATE_VECTOR
$      cid        xx        yx        zx        xv        yv        zv
         1        1.        0.        0.        0.        1.        0.
         2   0.99144  -0.13053   0.00000   0.13053   0.99144   0.00000
         3   0.96593  -0.25882   0.00000   0.25882   0.96593   0.00000
         4   0.92388  -0.38268   0.00000   0.38268   0.92388   0.00000
         5   0.86603  -0.50000   0.00000   0.50000   0.86603   0.00000
         6   0.79335  -0.60876   0.00000   0.60876   0.79335   0.00000
         7   0.70711  -0.70711   0.00000   0.70711   0.70711   0.00000
         8   0.60876  -0.79335   0.00000   0.79335   0.60876   0.00000
         9   0.50000  -0.86603   0.00000   0.86603   0.50000   0.00000
$
$$$$$$$$$$$$$$$$$$$$$$$$$$$$$$$$$$$$$$$$$$$$$$$$$$$$$$$$$$$$$$$$$$$$$$$$$$$$$$$$
$
$$$$  Initial Conditions
$
$$$$$$$$$$$$$$$$$$$$$$$$$$$$$$$$$$$$$$$$$$$$$$$$$$$$$$$$$$$$$$$$$$$$$$$$$$$$$$$$
$
$...>....1....>....2....>....3....>....4....>....5....>....6....>....7....>....8
$
*INITIAL_VELOCITY_NODE
$      nid        vx        vy        vz       vxr       vyr       vzr
         2      0.00  -5650.00      0.00      0.00      0.00      0.00
         3      0.00  -5650.00      0.00      0.00      0.00      0.00
         4      0.00  -5650.00      0.00      0.00      0.00      0.00
         5      0.00  -5650.00      0.00      0.00      0.00      0.00
         6      0.00  -5650.00      0.00      0.00      0.00      0.00
         7      0.00  -5650.00      0.00      0.00      0.00      0.00
         8      0.00  -5650.00      0.00      0.00      0.00      0.00
         9      0.00  -5650.00      0.00      0.00      0.00      0.00
        10      0.00  -5650.00      0.00      0.00      0.00      0.00
        11      0.00  -5650.00      0.00      0.00      0.00      0.00
        12      0.00  -5650.00      0.00      0.00      0.00      0.00
        13      0.00  -5650.00      0.00      0.00      0.00      0.00
        14      0.00  -5650.00      0.00      0.00      0.00      0.00
        19   -737.47  -5601.66      0.00      0.00      0.00      0.00
        20   -737.47  -5601.66      0.00      0.00      0.00      0.00
        21   -737.47  -5601.66      0.00      0.00      0.00      0.00
        22   -737.47  -5601.66      0.00      0.00      0.00      0.00
        23   -737.47  -5601.66      0.00      0.00      0.00      0.00
        24   -737.47  -5601.66      0.00      0.00      0.00      0.00
        25   -737.47  -5601.66      0.00      0.00      0.00      0.00
$ ... 45 like lines cut
$
$$$$$$$$$$$$$$$$$$$$$$$$$$$$$$$$$$$$$$$$$$$$$$$$$$$$$$$$$$$$$$$$$$$$$$$$$$$$$$$$
$
$$$$  Define Nodes and Elements
$
$$$$$$$$$$$$$$$$$$$$$$$$$$$$$$$$$$$$$$$$$$$$$$$$$$$$$$$$$$$$$$$$$$$$$$$$$$$$$$$$
$
$...>....1....>....2....>....3....>....4....>....5....>....6....>....7....>....8
$
*NODE
$    nid               x               y               z      tc      rc
       1 0.000000000E+00 0.294000006E+01 0.000000000E+00       0       0
       2 0.000000000E+00 0.294000006E+01-0.785000026E+00       0       0
       3 0.000000000E+00 0.294000006E+01-0.157000005E+01       0       0
       4 0.000000000E+00 0.294000006E+01-0.235500002E+01       0       0
       5 0.000000000E+00 0.294000006E+01-0.314000010E+01       0       0
       6 0.000000000E+00 0.294000006E+01-0.392499995E+01       0       0
       7 0.000000000E+00 0.294000006E+01-0.471000004E+01       0       0
       8 0.000000000E+00 0.294000006E+01-0.549499989E+01       0       0
       9 0.000000000E+00 0.294000006E+01-0.628000021E+01       0       0
      10 0.000000000E+00 0.294000006E+01-0.706500006E+01       0       0
      11 0.000000000E+00 0.294000006E+01-0.784999990E+01       0       0
      12 0.000000000E+00 0.294000006E+01-0.863500023E+01       0       0
      13 0.000000000E+00 0.294000006E+01-0.942000008E+01       0       0
      14 0.000000000E+00 0.294000006E+01-0.102049999E+02       0       0
      15 0.000000000E+00 0.294000006E+01-0.109899998E+02       0       0
      16 0.000000000E+00 0.294000006E+01-0.117749996E+02       0       0
      17 0.000000000E+00 0.294000006E+01-0.125600004E+02       0       0
      18 0.383747190E+00 0.291484809E+01 0.000000000E+00       0       0
      19 0.383747190E+00 0.291484809E+01-0.785000026E+00       0       0
      20 0.383747190E+00 0.291484809E+01-0.157000005E+01       0       0
$ ... 133 like lines cut
$
$$$$$$$$$$$   Shell Elements
$
*ELEMENT_SHELL
$    eid     pid      n1      n2      n3      n4
       1       1       1      18      19       2
       2       1       2      19      20       3
       3       1       3      20      21       4
       4       1       4      21      22       5
       5       1       5      22      23       6
       6       1       6      23      24       7
       7       1       7      24      25       8
       8       1       8      25      26       9
       9       1       9      26      27      10
      10       1      10      27      28      11
      11       1      11      28      29      12
      12       1      12      29      30      13
      13       1      13      30      31      14
      14       1      14      31      32      15
      15       1      15      32      33      16
      16       1      16      33      34      17
      17       1      18      35      36      19
      18       1      19      36      37      20
      19       1      20      37      38      21
      20       1      21      38      39      22
$ ... 108 like lines cut
*END
