*KEYWORD
*TITLE
A simple tire bouncing on the ground.
$
$  LSTC Example
$
$  Last Modified: October 10, 1997
$
$  --- GRAVITY CHECK ---
$
$   steady state is reached around 150 ms
$   m = 26.5534 kg ==> W = 0.26 kN
$   Damping oscillations around s.s., which is 0.26 kN (from RWFORC file)
$   Nodes demonstrate bouncing off ground (NODOUT)
$
$  Gravity modeled successfully using load curve and
$     BASE ACCELERATION IN Z-DIRECTION - Body Load in Z
$
$ Note: The acceleration is in the negative z-direction even though
$       all values needed to define acc. are positive.
$
$  * Shells (1 mm thick)
$  * Mild steel (with strain rate effect)
$  * Part 35 - wheel
$  * Part 36 - tire
$  * 2 discrete masses (10 kg each) at center of wheel to obtain proper weight
$  * Gap between tire and ground = 0.2 mm
$
$  Units: mm, kg, ms, kN, GPa, kN-mm
$
$$$$$$$$$$$$$$$$$$$$$$$$$$$$$$$$$$$$$$$$$$$$$$$$$$$$$$$$$$$$$$$$$$$$$$$$$$$$$$$$
$
$$$$  Control Ouput
$
$$$$$$$$$$$$$$$$$$$$$$$$$$$$$$$$$$$$$$$$$$$$$$$$$$$$$$$$$$$$$$$$$$$$$$$$$$$$$$$$
$
$...>....1....>....2....>....3....>....4....>....5....>....6....>....7....>....8
$
*CONTROL_TERMINATION 
$   endtim    endcyc     dtmin    endeng    endmas
    150.01         0       0.0       0.0       0.0
$
*CONTROL_ENERGY
$     hgen      rwen    slnten     rylen
         2         2
$
$
*DATABASE_BINARY_D3PLOT
$       dt       lcdt 
      10.0
$
*DATABASE_BINARY_D3THDT
$       dt       lcdt
    999999
$
*DATABASE_GLSTAT
$       dt
       0.2
$
*DATABASE_MATSUM
$       dt
       0.2
$      
*DATABASE_NODOUT
$       dt
       0.2
$
*DATABASE_HISTORY_NODE
$      id1       id2       id3       id4       id5       id6       id7       id8
      8914      8746      8918
$
*DATABASE_RWFORC
$       dt
       0.2
$
$$$$$$$$$$$$$$$$$$$$$$$$$$$$$$$$$$$$$$$$$$$$$$$$$$$$$$$$$$$$$$$$$$$$$$$$$$$$$$$$
$
$$$$  Gravity
$
$$$$$$$$$$$$$$$$$$$$$$$$$$$$$$$$$$$$$$$$$$$$$$$$$$$$$$$$$$$$$$$$$$$$$$$$$$$$$$$$
$
$...>....1....>....2....>....3....>....4....>....5....>....6....>....7....>....8
$
*LOAD_BODY_Z
$
$     lcid        df    lciddr        xc        yc        zc
         1 9.810E-03
$
$
*DEFINE_CURVE
$
$     lcid      sidr      scla      sclo      offa      offo
         1
$
$           abscissa            ordinate
                0.00               1.000
             1000.00               1.000
$
$$$$$$$$$$$$$$$$$$$$$$$$$$$$$$$$$$$$$$$$$$$$$$$$$$$$$$$$$$$$$$$$$$$$$$$$$$$$$$$$
$
$$$$  Rigid Wall - The Ground
$
$$$$$$$$$$$$$$$$$$$$$$$$$$$$$$$$$$$$$$$$$$$$$$$$$$$$$$$$$$$$$$$$$$$$$$$$$$$$$$$$
$
$...>....1....>....2....>....3....>....4....>....5....>....6....>....7....>....8
$ 
*RIGIDWALL_PLANAR
$     nsid    nsidex     boxid
         1         0         0
$       xt        yt        zt        xh        yh        zh      fric
       0.0       0.0    -279.2       0.0       0.0    -279.0       1.0
$
$
*SET_NODE_COLUMN
$      sid
         1
$      nid
      8901
      8904
      8911
      8912
      8913
      8914
      8919
      8920
      8921
      8922
$
$$$$$$$$$$$$$$$$$$$$$$$$$$$$$$$$$$$$$$$$$$$$$$$$$$$$$$$$$$$$$$$$$$$$$$$$$$$$$$$$
$
$$$$  Define Parts and Materials
$
$$$$$$$$$$$$$$$$$$$$$$$$$$$$$$$$$$$$$$$$$$$$$$$$$$$$$$$$$$$$$$$$$$$$$$$$$$$$$$$$
$
$...>....1....>....2....>....3....>....4....>....5....>....6....>....7....>....8
$
*PART
$      pid       sid       mid     eosid      hgid      grav    adpopt
wheel
        35         1         1
tire
        36         1         1
$
$
$$$$  Materials
$
*MAT_PIECEWISE_LINEAR_PLASTICITY
$...>....1....>....2....>....3....>....4....>....5....>....6....>....7....>....8
$      mid        ro         e        pr      sigy      etan      eppf      tdel
         1 0.783E-05     200.0       0.3     0.207               0.750
$  Cowper/Symonds Strain Rate Parameters
$        C         p      lcss      lcsr
        40         5
$  Plastic stress/strain curves
     0.000     0.080     0.160     0.400     1.000
     0.207     0.250     0.275     0.290     0.300
$
$
$$$$  Sections
$
*SECTION_SHELL
$...>....1....>....2....>....3....>....4....>....5....>....6....>....7....>....8
$      sid    elform      shrf       nip     propt   qr/irid     icomp
         1         2              3.0000
$       t1        t2        t3        t4      nloc
      1.00      1.00      1.00      1.00
$ 
$
$$$$$$$$$$$$$$$$$$$$$$$$$$$$$$$$$$$$$$$$$$$$$$$$$$$$$$$$$$$$$$$$$$$$$$$$$$$$$$$$
$
$$$$  Define Nodes and Elements
$
$$$$$$$$$$$$$$$$$$$$$$$$$$$$$$$$$$$$$$$$$$$$$$$$$$$$$$$$$$$$$$$$$$$$$$$$$$$$$$$$
$
$...>....1....>....2....>....3....>....4....>....5....>....6....>....7....>....8
$
*NODE
$    nid               x               y               z      tc      rc
    8719 -1.16673000E+02 -6.24000000E+02 -1.16673000E+02       0       0
    8720 -1.52440000E+02 -6.24000000E+02 -6.31430000E+01       0       0
    8721 -1.65000000E+02 -6.24000000E+02 0.000000000E+00       0       0
    8722 -1.16673000E+02 -7.54000000E+02 -1.16673000E+02       0       0
    8723 -1.52440000E+02 -7.54000000E+02 -6.31430000E+01       0       0
    8724 -1.65000000E+02 -7.54000000E+02 0.000000000E+00       0       0
    8725 -6.31430000E+01 -6.24000000E+02 -1.52440000E+02       0       0
    8726 -7.86230000E+01 -6.24000000E+02 -7.86230000E+01       0       0
    8727 -8.25000000E+01 -6.24000000E+02 0.000000000E+00       0       0
    8728 0.000000000E+00 -6.24000000E+02 -1.65000000E+02       0       0
    8729 0.000000000E+00 -6.24000000E+02 -8.25000000E+01       0       0
    8730 0.000000000E+00 -6.24000000E+02 0.000000000E+00       0       0
    8731 -6.31430000E+01 -7.54000000E+02 -1.52440000E+02       0       0
    8732 0.000000000E+00 -7.54000000E+02 -1.65000000E+02       0       0
    8733 -1.52440000E+02 -6.24000000E+02 6.314300000E+01       0       0
    8734 -1.16673000E+02 -6.24000000E+02 1.166730000E+02       0       0
    8735 -1.52440000E+02 -7.54000000E+02 6.314300000E+01       0       0
    8736 -1.16673000E+02 -7.54000000E+02 1.166730000E+02       0       0
    8737 -7.86230000E+01 -6.24000000E+02 7.862300000E+01       0       0
    8738 -6.31430000E+01 -6.24000000E+02 1.524400000E+02       0       0
$ ... 62 like lines cut
$
$$$$$$$$$    Shell Elements
$
*ELEMENT_SHELL
$    eid     pid      n1      n2      n3      n4   
    8710      35    8719    8722    8723    8720
    8711      35    8720    8723    8724    8721
    8712      35    8719    8725    8726    8720
    8713      35    8725    8728    8729    8726
    8714      35    8720    8726    8727    8721
    8715      35    8726    8729    8730    8727
    8716      35    8719    8725    8731    8722
    8717      35    8725    8728    8732    8731
    8718      35    8721    8724    8735    8733
    8719      35    8733    8735    8736    8734
    8720      35    8721    8727    8737    8733
    8721      35    8727    8730    8739    8737
    8722      35    8733    8737    8738    8734
    8723      35    8737    8739    8740    8738
    8724      35    8734    8738    8741    8736
    8725      35    8738    8740    8742    8741
    8726      35    8722    8731    8743    8723
    8727      35    8731    8732    8745    8743
    8728      35    8723    8743    8744    8724
    8729      35    8743    8745    8746    8744
$ ... 76 like lines cut
$
$$$$$$$  Nodal Mass Elements
$
*ELEMENT_MASS
$    eid     nid      mass
    8730    8730      10.0
    8746    8746      10.0
$
*END
